Version 4
SHEET 1 880 680
WIRE -672 -288 -672 -320
WIRE -672 -288 -688 -288
WIRE -496 -288 -496 -320
WIRE -672 -192 -672 -208
WIRE -496 -192 -496 -208
WIRE 80 -128 -48 -128
WIRE 464 -128 160 -128
WIRE 320 16 320 -320
WIRE -400 32 -432 32
WIRE -272 32 -320 32
WIRE -208 32 -272 32
WIRE -48 32 -48 -128
WIRE -48 32 -144 32
WIRE 16 32 -48 32
WIRE 144 32 80 32
WIRE 288 32 144 32
WIRE 464 48 464 -128
WIRE 464 48 352 48
WIRE 496 48 464 48
WIRE 592 48 496 48
WIRE 288 64 240 64
WIRE -272 96 -272 32
WIRE 144 96 144 32
WIRE -432 112 -432 32
WIRE 240 160 240 64
WIRE 368 160 240 160
WIRE 496 160 496 48
WIRE 496 160 448 160
WIRE 240 192 240 160
WIRE -272 208 -272 160
WIRE 144 208 144 176
WIRE 240 320 240 272
WIRE 320 448 320 80
FLAG 592 48 out
IOPIN 592 48 Out
FLAG 240 320 0
FLAG 144 208 0
FLAG -272 208 0
FLAG -432 192 0
FLAG -496 -320 V+
FLAG -672 -320 V-
FLAG -496 -192 0
FLAG -672 -192 0
FLAG 320 448 V+
FLAG 320 -320 V-
SYMBOL OpAmps\\OP07 320 112 M180
SYMATTR InstName U1
SYMBOL cap 80 16 R90
WINDOW 0 0 32 VBottom 2
WINDOW 3 32 32 VTop 2
SYMATTR InstName C2
SYMATTR Value 100n
SYMBOL res 176 -144 R90
WINDOW 0 0 56 VBottom 2
WINDOW 3 32 56 VTop 2
SYMATTR InstName R1
SYMATTR Value 8k
SYMBOL res 160 192 R180
WINDOW 0 36 76 Left 2
WINDOW 3 36 40 Left 2
SYMATTR InstName R2
SYMATTR Value 8k
SYMBOL res 224 176 R0
SYMATTR InstName R3
SYMATTR Value 6k
SYMBOL res 464 144 R90
WINDOW 0 0 56 VBottom 2
WINDOW 3 32 56 VTop 2
SYMATTR InstName R4
SYMATTR Value 10k
SYMBOL voltage -432 96 R0
WINDOW 123 24 124 Left 2
WINDOW 39 0 0 Left 0
SYMATTR Value2 AC 1
SYMATTR InstName V1
SYMATTR Value SINE(0 10 10k)
SYMBOL res -304 16 R90
WINDOW 0 0 56 VBottom 2
WINDOW 3 32 56 VTop 2
SYMATTR InstName R5
SYMATTR Value 750
SYMBOL cap -288 96 R0
SYMATTR InstName C1
SYMATTR Value 0.01µ
SYMBOL voltage -672 -304 R0
WINDOW 123 0 0 Left 0
WINDOW 39 0 0 Left 0
SYMATTR InstName V3
SYMATTR Value -13
SYMBOL voltage -496 -304 R0
WINDOW 123 0 0 Left 0
WINDOW 39 0 0 Left 0
SYMATTR InstName V4
SYMATTR Value 13
SYMBOL cap -144 16 R90
WINDOW 0 0 32 VBottom 2
WINDOW 3 32 32 VTop 2
SYMATTR InstName C3
SYMATTR Value 100n
TEXT -704 520 Left 2 !;tran 0.1m
TEXT -304 -232 Left 2 !.ac dec 100 1 100MEG
