Version 4
SHEET 1 880 680
WIRE 336 -144 256 -144
WIRE 336 -128 336 -144
WIRE 256 -112 256 -144
WIRE 256 -32 80 -32
WIRE 80 0 80 -32
WIRE -160 80 -192 80
WIRE -32 80 -80 80
WIRE 80 80 32 80
WIRE 256 80 256 48
WIRE 288 80 256 80
WIRE 384 80 352 80
WIRE 256 128 256 80
WIRE -192 144 -192 80
WIRE 80 176 80 80
WIRE 192 176 80 176
WIRE 256 272 256 224
WIRE 256 400 256 352
FLAG 256 400 0
FLAG 336 -128 0
FLAG 384 80 OUT
IOPIN 384 80 Out
FLAG -192 144 0
FLAG 80 256 0
SYMBOL npn 192 128 R0
SYMATTR InstName Q1
SYMATTR Value BC547B
SYMBOL res 240 -48 R0
SYMATTR InstName R2
SYMATTR Value 8k
SYMBOL res 240 256 R0
SYMATTR InstName R3
SYMATTR Value 1k
SYMBOL voltage 256 -16 R180
WINDOW 0 24 96 Left 2
WINDOW 3 24 16 Left 2
WINDOW 123 0 0 Left 0
WINDOW 39 0 0 Left 0
SYMATTR InstName V1
SYMATTR Value 15
SYMBOL cap 352 64 R90
WINDOW 0 0 32 VBottom 2
WINDOW 3 32 32 VTop 2
SYMATTR InstName C1
SYMATTR Value 100µ
SYMBOL voltage -64 80 R90
WINDOW 0 -32 56 VBottom 2
WINDOW 3 32 56 VTop 2
WINDOW 123 60 56 VTop 2
WINDOW 39 0 0 Left 0
SYMATTR InstName V2
SYMATTR Value SINE(0 800m 20k)
SYMATTR Value2 AC 1 0
SYMBOL cap 32 64 R90
WINDOW 0 0 32 VBottom 2
WINDOW 3 32 32 VTop 2
SYMATTR InstName C2
SYMATTR Value 100µ
SYMBOL res 64 160 R0
SYMATTR InstName R4
SYMATTR Value 120k
SYMBOL res 64 -16 R0
SYMATTR InstName R1
SYMATTR Value 1000k
TEXT -216 424 Left 2 !.tran 1m
